Version 4
SHEET 1 1400 1464
WIRE -976 -832 -976 -896
WIRE -976 -832 -992 -832
WIRE -992 -784 -992 -832
WIRE -976 -784 -992 -784
WIRE -976 -736 -1008 -736
WIRE -1536 -672 -1616 -672
WIRE -1344 -672 -1440 -672
WIRE -1136 -672 -1248 -672
WIRE -1008 -672 -1008 -736
WIRE -1008 -672 -1040 -672
WIRE -816 -672 -1008 -672
WIRE -960 -608 -960 -640
WIRE -960 -608 -976 -608
WIRE -976 -560 -976 -608
WIRE -960 -560 -976 -560
WIRE -960 -512 -1040 -512
WIRE -736 -512 -960 -512
WIRE -1536 -480 -1616 -480
WIRE -1344 -480 -1440 -480
WIRE -1136 -480 -1248 -480
WIRE -1040 -480 -1040 -512
WIRE -912 -384 -912 -432
WIRE -912 -384 -928 -384
WIRE -928 -336 -928 -384
WIRE -912 -336 -928 -336
WIRE -1536 -272 -1616 -272
WIRE -1344 -272 -1440 -272
WIRE -1136 -272 -1248 -272
WIRE -912 -272 -912 -288
WIRE -912 -272 -1040 -272
WIRE -800 -272 -912 -272
WIRE -960 -192 -960 -240
WIRE -960 -192 -976 -192
WIRE -976 -144 -976 -192
WIRE -960 -144 -976 -144
WIRE -960 -96 -1040 -96
WIRE -800 -96 -960 -96
WIRE -1536 -80 -1616 -80
WIRE -1344 -80 -1440 -80
WIRE -1136 -80 -1248 -80
WIRE -1040 -80 -1040 -96
WIRE -960 0 -960 -32
WIRE -960 0 -976 0
WIRE -960 16 -960 0
WIRE -976 64 -976 0
WIRE -960 64 -976 64
WIRE -1536 128 -1616 128
WIRE -1344 128 -1440 128
WIRE -1136 128 -1248 128
WIRE -960 128 -960 112
WIRE -960 128 -1040 128
WIRE -800 128 -960 128
WIRE -1408 496 -1408 464
WIRE -1392 496 -1408 496
WIRE -1136 496 -1136 464
WIRE -1120 496 -1136 496
WIRE -800 496 -800 464
WIRE -784 496 -800 496
WIRE -1392 544 -1392 496
WIRE -1392 544 -1408 544
WIRE -1120 544 -1120 496
WIRE -1120 544 -1136 544
WIRE -784 544 -784 496
WIRE -784 544 -800 544
WIRE -1456 576 -1488 576
WIRE -1184 576 -1200 576
WIRE -848 576 -880 576
WIRE -1520 624 -1520 528
WIRE -1520 624 -1536 624
WIRE -1488 624 -1488 576
WIRE -1488 624 -1520 624
WIRE -1408 624 -1408 592
WIRE -1376 624 -1408 624
WIRE -1232 624 -1232 528
WIRE -1232 624 -1248 624
WIRE -1200 624 -1200 576
WIRE -1200 624 -1232 624
WIRE -1136 624 -1136 592
WIRE -1056 624 -1136 624
WIRE -896 624 -896 544
WIRE -896 624 -928 624
WIRE -880 624 -880 576
WIRE -880 624 -896 624
WIRE -800 624 -800 592
WIRE -720 624 -800 624
WIRE -1408 656 -1408 624
WIRE -1136 656 -1136 624
WIRE -800 656 -800 624
WIRE -1392 704 -1408 704
WIRE -1120 704 -1136 704
WIRE -784 704 -800 704
WIRE -1488 736 -1488 624
WIRE -1456 736 -1488 736
WIRE -1200 736 -1200 624
WIRE -1184 736 -1200 736
WIRE -880 736 -880 624
WIRE -848 736 -880 736
WIRE -1392 752 -1392 704
WIRE -1392 752 -1408 752
WIRE -1120 752 -1120 704
WIRE -1120 752 -1136 752
WIRE -784 752 -784 704
WIRE -784 752 -800 752
WIRE -1408 784 -1408 752
WIRE -1136 784 -1136 752
WIRE -800 784 -800 752
WIRE -1376 848 -1376 624
WIRE -1056 848 -1056 624
WIRE -720 848 -720 624
FLAG -16 96 WL1
IOPIN -16 96 In
FLAG 336 96 WL1
IOPIN 336 96 In
FLAG 704 96 WL1
IOPIN 704 96 In
FLAG 1072 96 WL1
IOPIN 1072 96 In
FLAG -16 352 WL2
IOPIN -16 352 In
FLAG 336 352 WL2
IOPIN 336 352 In
FLAG 704 352 WL2
IOPIN 704 352 In
FLAG 1072 352 WL2
IOPIN 1072 352 In
FLAG -16 576 WL3
IOPIN -16 576 In
FLAG 336 576 WL3
IOPIN 336 576 In
FLAG 704 576 WL3
IOPIN 704 576 In
FLAG 1072 576 WL3
IOPIN 1072 576 In
FLAG -16 832 WL4
IOPIN -16 832 In
FLAG 336 832 WL4
IOPIN 336 832 In
FLAG 704 832 WL4
IOPIN 704 832 In
FLAG 1072 832 WL4
IOPIN 1072 832 In
FLAG -16 1072 WL5
IOPIN -16 1072 In
FLAG 336 1072 WL5
IOPIN 336 1072 In
FLAG 704 1072 WL5
IOPIN 704 1072 In
FLAG 1072 1072 WL5
IOPIN 1072 1072 In
FLAG -16 -32 BL1
IOPIN -16 -32 BiDir
FLAG -16 224 BL1
IOPIN -16 224 BiDir
FLAG -16 448 BL1
IOPIN -16 448 BiDir
FLAG -16 704 BL1
IOPIN -16 704 BiDir
FLAG -16 944 BL1
IOPIN -16 944 BiDir
FLAG 336 -32 BL2
IOPIN 336 -32 BiDir
FLAG 336 224 BL2
IOPIN 336 224 BiDir
FLAG 336 448 BL2
IOPIN 336 448 BiDir
FLAG 336 704 BL2
IOPIN 336 704 BiDir
FLAG 336 944 BL2
IOPIN 336 944 BiDir
FLAG 704 -32 BL3
IOPIN 704 -32 BiDir
FLAG 704 224 BL3
IOPIN 704 224 BiDir
FLAG 704 448 BL3
IOPIN 704 448 BiDir
FLAG 704 704 BL3
IOPIN 704 704 BiDir
FLAG 704 944 BL3
IOPIN 704 944 BiDir
FLAG 1072 -32 BL4
IOPIN 1072 -32 BiDir
FLAG 1072 224 BL4
IOPIN 1072 224 BiDir
FLAG 1072 448 BL4
IOPIN 1072 448 BiDir
FLAG 1072 704 BL4
IOPIN 1072 704 BiDir
FLAG 1072 944 BL4
IOPIN 1072 944 BiDir
FLAG 896 -224 BL3
IOPIN 896 -224 BiDir
FLAG 1248 -224 BL4
IOPIN 1248 -224 BiDir
FLAG 544 -224 BL2
IOPIN 544 -224 BiDir
FLAG 176 -224 BL1
IOPIN 176 -224 BiDir
FLAG 176 1184 BL1
IOPIN 176 1184 BiDir
FLAG 544 1184 BL2
IOPIN 544 1184 BiDir
FLAG 912 1184 BL3
IOPIN 912 1184 BiDir
FLAG 1280 1184 BL4
IOPIN 1280 1184 BiDir
FLAG -112 1232 Vdd
IOPIN -112 1232 In
FLAG 256 1232 Vdd
IOPIN 256 1232 In
FLAG 624 1232 Vdd
IOPIN 624 1232 In
FLAG 992 1232 Vdd
IOPIN 992 1232 In
FLAG -80 -208 Vdd
IOPIN -80 -208 In
FLAG 288 -208 Vdd
IOPIN 288 -208 In
FLAG 640 -208 Vdd
IOPIN 640 -208 In
FLAG 992 -208 Vdd
IOPIN 992 -208 In
FLAG 176 -192 nBL1
IOPIN 176 -192 BiDir
FLAG -16 0 nBL1
IOPIN -16 0 BiDir
FLAG -16 256 nBL1
IOPIN -16 256 BiDir
FLAG -16 480 nBL1
IOPIN -16 480 BiDir
FLAG -16 736 nBL1
IOPIN -16 736 BiDir
FLAG -16 976 nBL1
IOPIN -16 976 BiDir
FLAG 544 -192 nBL2
IOPIN 544 -192 BiDir
FLAG 336 0 nBL2
IOPIN 336 0 BiDir
FLAG 336 256 nBL2
IOPIN 336 256 BiDir
FLAG 336 480 nBL2
IOPIN 336 480 BiDir
FLAG 336 736 nBL2
IOPIN 336 736 BiDir
FLAG 336 976 nBL2
IOPIN 336 976 BiDir
FLAG 544 1216 nBL2
IOPIN 544 1216 BiDir
FLAG 176 1216 nBL1
IOPIN 176 1216 BiDir
FLAG 896 -192 nBL3
IOPIN 896 -192 BiDir
FLAG 704 0 nBL3
IOPIN 704 0 BiDir
FLAG 704 256 nBL3
IOPIN 704 256 BiDir
FLAG 704 480 nBL3
IOPIN 704 480 BiDir
FLAG 704 736 nBL3
IOPIN 704 736 BiDir
FLAG 704 976 nBL3
IOPIN 704 976 BiDir
FLAG 912 1216 nBL3
IOPIN 912 1216 BiDir
FLAG 1248 -192 nBL4
IOPIN 1248 -192 BiDir
FLAG 1072 0 nBL4
IOPIN 1072 0 BiDir
FLAG 1072 256 nBL4
IOPIN 1072 256 BiDir
FLAG 1072 480 nBL4
IOPIN 1072 480 BiDir
FLAG 1072 736 nBL4
IOPIN 1072 736 BiDir
FLAG 1072 976 nBL4
IOPIN 1072 976 BiDir
FLAG 1280 1216 nBL4
IOPIN 1280 1216 BiDir
FLAG -16 1008 Vdd
IOPIN -16 1008 In
FLAG -16 768 Vdd
IOPIN -16 768 In
FLAG -16 512 Vdd
IOPIN -16 512 In
FLAG -16 288 Vdd
IOPIN -16 288 In
FLAG -16 32 Vdd
IOPIN -16 32 In
FLAG 336 32 Vdd
IOPIN 336 32 In
FLAG 704 32 Vdd
IOPIN 704 32 In
FLAG 1072 32 Vdd
IOPIN 1072 32 In
FLAG 1072 288 Vdd
IOPIN 1072 288 In
FLAG 1072 512 Vdd
IOPIN 1072 512 In
FLAG 1072 768 Vdd
IOPIN 1072 768 In
FLAG 1072 1008 Vdd
IOPIN 1072 1008 In
FLAG 704 1008 Vdd
IOPIN 704 1008 In
FLAG 336 1008 Vdd
IOPIN 336 1008 In
FLAG 336 768 Vdd
IOPIN 336 768 In
FLAG 704 768 Vdd
IOPIN 704 768 In
FLAG 704 512 Vdd
IOPIN 704 512 In
FLAG 336 512 Vdd
IOPIN 336 512 In
FLAG 336 288 Vdd
IOPIN 336 288 In
FLAG 704 288 Vdd
IOPIN 704 288 In
FLAG -16 64 0
FLAG 336 64 0
FLAG 704 64 0
FLAG 1072 64 0
FLAG 1072 320 0
FLAG 704 320 0
FLAG 336 320 0
FLAG -16 320 0
FLAG -16 544 0
FLAG 336 544 0
FLAG 704 544 0
FLAG 1072 544 0
FLAG 1072 800 0
FLAG 704 800 0
FLAG 336 800 0
FLAG -16 800 0
FLAG -16 1040 0
FLAG 336 1040 0
FLAG 704 1040 0
FLAG 1072 1040 0
FLAG -1408 784 0
FLAG -1408 464 Vdd
IOPIN -1408 464 In
FLAG -1136 784 0
FLAG -1136 464 Vdd
IOPIN -1136 464 In
FLAG -800 784 0
FLAG -800 464 Vdd
IOPIN -800 464 In
FLAG -1616 624 0
FLAG -1008 624 0
FLAG -1328 624 0
FLAG -1520 528 A0
IOPIN -1520 528 Out
FLAG -1232 528 A1
IOPIN -1232 528 Out
FLAG -896 544 A2
IOPIN -896 544 Out
FLAG -1376 848 A0_Bar
IOPIN -1376 848 Out
FLAG -1056 848 A1_Bar
IOPIN -1056 848 Out
FLAG -720 848 A2_Bar
IOPIN -720 848 Out
FLAG -1616 -672 0
FLAG -1616 -480 0
FLAG -1616 -272 0
FLAG -1616 -80 0
FLAG -1616 128 0
FLAG -1056 176 A0_Bar
IOPIN -1056 176 In
FLAG -1056 -224 A0_Bar
IOPIN -1056 -224 In
FLAG -1056 -624 A0_Bar
IOPIN -1056 -624 In
FLAG -1056 -32 A0
IOPIN -1056 -32 In
FLAG -1056 -432 A0
IOPIN -1056 -432 In
FLAG -1264 176 A1_Bar
IOPIN -1264 176 In
FLAG -1264 -32 A1_Bar
IOPIN -1264 -32 In
FLAG -1264 -624 A1_Bar
IOPIN -1264 -624 In
FLAG -1264 -224 A1
IOPIN -1264 -224 In
FLAG -1264 -432 A1
IOPIN -1264 -432 In
FLAG -1456 -624 A2
IOPIN -1456 -624 In
FLAG -1488 -672 0
FLAG -1296 -672 0
FLAG -1088 -672 0
FLAG -1088 -480 0
FLAG -1296 -480 0
FLAG -1488 -480 0
FLAG -1488 -272 0
FLAG -1296 -272 0
FLAG -1088 -272 0
FLAG -1088 -80 0
FLAG -1296 -80 0
FLAG -1488 -80 0
FLAG -1488 128 0
FLAG -1296 128 0
FLAG -1088 128 0
FLAG -1456 -432 A2_Bar
IOPIN -1456 -432 In
FLAG -1456 -224 A2_Bar
IOPIN -1456 -224 In
FLAG -1456 -32 A2_Bar
IOPIN -1456 -32 In
FLAG -1456 176 A2_Bar
IOPIN -1456 176 In
FLAG -976 -896 Vdd
IOPIN -976 -896 In
FLAG -960 -640 Vdd
IOPIN -960 -640 In
FLAG -912 -432 Vdd
IOPIN -912 -432 In
FLAG -960 -240 Vdd
IOPIN -960 -240 In
FLAG -960 -32 Vdd
IOPIN -960 -32 In
FLAG -928 -816 phi
IOPIN -928 -816 In
FLAG -912 -592 phi
IOPIN -912 -592 In
FLAG -864 -368 phi
IOPIN -864 -368 In
FLAG -912 -176 phi
IOPIN -912 -176 In
FLAG -912 32 phi
IOPIN -912 32 In
FLAG -816 -672 WL5
IOPIN -816 -672 Out
FLAG -736 -512 WL4
IOPIN -736 -512 Out
FLAG -800 -272 WL3
IOPIN -800 -272 Out
FLAG -800 -96 WL2
IOPIN -800 -96 Out
FLAG -800 128 WL1
IOPIN -800 128 Out
FLAG -48 -720 0
FLAG 208 -720 0
FLAG 32 -720 Vdd
IOPIN 32 -720 Out
FLAG 288 -720 Vdd/2
IOPIN 288 -720 Out
FLAG -80 -176 Vdd/2
IOPIN -80 -176 In
FLAG 288 -176 Vdd/2
IOPIN 288 -176 In
FLAG 640 -176 Vdd/2
IOPIN 640 -176 In
FLAG 992 -176 Vdd/2
IOPIN 992 -176 In
FLAG -112 1168 phi_s
IOPIN -112 1168 In
FLAG 256 1168 phi_s
IOPIN 256 1168 In
FLAG 624 1168 phi_s
IOPIN 624 1168 In
FLAG 992 1168 phi_s
IOPIN 992 1168 In
FLAG -80 -240 phi_d
IOPIN -80 -240 In
FLAG 288 -240 phi_d
IOPIN 288 -240 In
FLAG 640 -240 phi_d
IOPIN 640 -240 In
FLAG 992 -240 phi_d
IOPIN 992 -240 In
FLAG -112 1200 phi_s_bar
IOPIN -112 1200 In
FLAG 256 1200 phi_s_bar
IOPIN 256 1200 In
FLAG 624 1200 phi_s_bar
IOPIN 624 1200 In
FLAG 992 1200 phi_s_bar
IOPIN 992 1200 In
FLAG -80 -272 DataIn
IOPIN -80 -272 In
FLAG 288 -272 DataIn
IOPIN 288 -272 In
FLAG 640 -272 DataIn
IOPIN 640 -272 In
FLAG 992 -272 DataIn
IOPIN 992 -272 In
FLAG -80 -144 Write
IOPIN -80 -144 In
FLAG 288 -144 Write
IOPIN 288 -144 In
FLAG 640 -144 Write
IOPIN 640 -144 In
FLAG 992 -144 Write
IOPIN 992 -144 In
FLAG 32 -576 phi
IOPIN 32 -576 Out
FLAG -48 -576 0
SYMBOL core-final 32 32 R0
SYMATTR InstName X1
SYMBOL core-final 384 32 R0
SYMATTR InstName X2
SYMBOL core-final 752 32 R0
SYMATTR InstName X3
SYMBOL core-final 1120 32 R0
SYMATTR InstName X4
SYMBOL core-final 32 288 R0
SYMATTR InstName X5
SYMBOL core-final 384 288 R0
SYMATTR InstName X6
SYMBOL core-final 752 288 R0
SYMATTR InstName X7
SYMBOL core-final 1120 288 R0
SYMATTR InstName X8
SYMBOL core-final 32 512 R0
SYMATTR InstName X9
SYMBOL core-final 384 512 R0
SYMATTR InstName X10
SYMBOL core-final 752 512 R0
SYMATTR InstName X11
SYMBOL core-final 1120 512 R0
SYMATTR InstName X12
SYMBOL core-final 32 768 R0
SYMATTR InstName X13
SYMBOL core-final 384 768 R0
SYMATTR InstName X14
SYMBOL core-final 752 768 R0
SYMATTR InstName X15
SYMBOL core-final 1120 768 R0
SYMATTR InstName X16
SYMBOL core-final 32 1008 R0
SYMATTR InstName X17
SYMBOL core-final 384 1008 R0
SYMATTR InstName X18
SYMBOL core-final 752 1008 R0
SYMATTR InstName X19
SYMBOL core-final 1120 1008 R0
SYMATTR InstName X20
SYMBOL Drivers 48 -208 R0
SYMATTR InstName X21
SYMBOL Drivers 416 -208 R0
SYMATTR InstName X22
SYMBOL Drivers 768 -208 R0
SYMATTR InstName X23
SYMBOL Drivers 1120 -208 R0
SYMATTR InstName X24
SYMBOL amp 32 1200 R0
SYMATTR InstName X25
SYMBOL amp 400 1200 R0
SYMATTR InstName X26
SYMBOL amp 768 1200 R0
SYMATTR InstName X27
SYMBOL amp 1136 1200 R0
SYMATTR InstName X28
SYMBOL nmos4 -1456 656 R0
SYMATTR InstName M1
SYMATTR Value N_2u
SYMATTR Value2 l=2u w=8u
SYMBOL pmos4 -1456 496 R0
SYMATTR InstName M2
SYMATTR Value P_2u
SYMATTR Value2 l=2u w=12u
SYMBOL nmos4 -1184 656 R0
SYMATTR InstName M3
SYMATTR Value N_2u
SYMATTR Value2 l=2u w=8u
SYMBOL pmos4 -1184 496 R0
SYMATTR InstName M4
SYMATTR Value P_2u
SYMATTR Value2 l=2u w=12u
SYMBOL voltage -1520 624 R90
WINDOW 0 -32 56 VBottom 2
WINDOW 3 32 56 VTop 2
WINDOW 123 0 0 Left 0
WINDOW 39 0 0 Left 0
SYMATTR InstName A0
SYMATTR Value 1
SYMBOL voltage -1232 624 R90
WINDOW 0 -32 56 VBottom 2
WINDOW 3 32 56 VTop 2
WINDOW 123 0 0 Left 0
WINDOW 39 0 0 Left 0
SYMATTR InstName A1
SYMATTR Value 0
SYMBOL voltage -912 624 R90
WINDOW 0 -32 56 VBottom 2
WINDOW 3 32 56 VTop 2
WINDOW 123 0 0 Left 0
WINDOW 39 0 0 Left 0
SYMATTR InstName A2
SYMATTR Value 0
SYMBOL nmos4 -848 656 R0
SYMATTR InstName M5
SYMATTR Value N_2u
SYMATTR Value2 l=2u w=8u
SYMBOL pmos4 -848 496 R0
SYMATTR InstName M6
SYMATTR Value P_2u
SYMATTR Value2 l=2u w=12u
SYMBOL nmos4 -1136 176 R270
SYMATTR InstName M8
SYMATTR Value N_2u
SYMATTR Value2 l=2u w=8u
SYMBOL nmos4 -1344 176 R270
SYMATTR InstName M7
SYMATTR Value N_2u
SYMATTR Value2 l=2u w=8u
SYMBOL nmos4 -1136 -32 R270
SYMATTR InstName M9
SYMATTR Value N_2u
SYMATTR Value2 l=2u w=8u
SYMBOL nmos4 -1344 -32 R270
SYMATTR InstName M10
SYMATTR Value N_2u
SYMATTR Value2 l=2u w=8u
SYMBOL nmos4 -1536 176 R270
SYMATTR InstName M11
SYMATTR Value N_2u
SYMATTR Value2 l=2u w=8u
SYMBOL nmos4 -1536 -32 R270
SYMATTR InstName M12
SYMATTR Value N_2u
SYMATTR Value2 l=2u w=8u
SYMBOL nmos4 -1136 -224 R270
SYMATTR InstName M13
SYMATTR Value N_2u
SYMATTR Value2 l=2u w=8u
SYMBOL nmos4 -1344 -224 R270
SYMATTR InstName M14
SYMATTR Value N_2u
SYMATTR Value2 l=2u w=8u
SYMBOL nmos4 -1136 -432 R270
SYMATTR InstName M15
SYMATTR Value N_2u
SYMATTR Value2 l=2u w=8u
SYMBOL nmos4 -1344 -432 R270
SYMATTR InstName M16
SYMATTR Value N_2u
SYMATTR Value2 l=2u w=8u
SYMBOL nmos4 -1536 -224 R270
SYMATTR InstName M17
SYMATTR Value N_2u
SYMATTR Value2 l=2u w=8u
SYMBOL nmos4 -1536 -432 R270
SYMATTR InstName M18
SYMATTR Value N_2u
SYMATTR Value2 l=2u w=8u
SYMBOL nmos4 -1136 -624 R270
SYMATTR InstName M19
SYMATTR Value N_2u
SYMATTR Value2 l=2u w=8u
SYMBOL nmos4 -1344 -624 R270
SYMATTR InstName M20
SYMATTR Value N_2u
SYMATTR Value2 l=2u w=8u
SYMBOL nmos4 -1536 -624 R270
SYMATTR InstName M21
SYMATTR Value N_2u
SYMATTR Value2 l=2u w=8u
SYMBOL pmos4 -912 112 R180
SYMATTR InstName M22
SYMATTR Value P_2u
SYMATTR Value2 l=2u w=12u
SYMBOL pmos4 -912 -96 R180
SYMATTR InstName M23
SYMATTR Value P_2u
SYMATTR Value2 l=2u w=12u
SYMBOL pmos4 -864 -288 R180
SYMATTR InstName M24
SYMATTR Value P_2u
SYMATTR Value2 l=2u w=12u
SYMBOL pmos4 -912 -512 R180
SYMATTR InstName M25
SYMATTR Value P_2u
SYMATTR Value2 l=2u w=8u
SYMBOL pmos4 -928 -736 R180
SYMATTR InstName M26
SYMATTR Value P_2u
SYMATTR Value2 l=2u w=12u
SYMBOL voltage 48 -720 R90
WINDOW 0 -32 56 VBottom 2
WINDOW 3 32 56 VTop 2
WINDOW 123 0 0 Left 0
WINDOW 39 0 0 Left 0
SYMATTR InstName V1
SYMATTR Value 5
SYMBOL voltage 304 -720 R90
WINDOW 0 -32 56 VBottom 2
WINDOW 3 32 56 VTop 2
WINDOW 123 0 0 Left 0
WINDOW 39 0 0 Left 0
SYMATTR InstName V2
SYMATTR Value 2.5
SYMBOL voltage 48 -576 R90
WINDOW 0 -32 56 VBottom 2
WINDOW 3 32 56 VTop 2
SYMATTR InstName V3
SYMBOL voltage 304 -576 R90
WINDOW 0 -32 56 VBottom 2
WINDOW 3 32 56 VTop 2
SYMATTR InstName V4
SYMBOL voltage 48 -448 R90
WINDOW 0 -32 56 VBottom 2
WINDOW 3 32 56 VTop 2
SYMATTR InstName V5
SYMBOL voltage 304 -448 R90
WINDOW 0 -32 56 VBottom 2
WINDOW 3 32 56 VTop 2
SYMATTR InstName V6
TEXT -1938 1448 Left 2 !.tran 0 500m 0 10m startup
TEXT -744 -904 Left 2 !.include "C:\\Users\\DANIEL\\Documents\\IPD445\\Modelos de transistores-20230616\\2um_CMOS.modlib"
