Version 4
SHEET 1 2652 1000
WIRE 48 16 48 -16
WIRE 64 16 48 16
WIRE 240 16 240 -16
WIRE 256 16 240 16
WIRE 64 64 64 16
WIRE 64 64 48 64
WIRE 256 64 256 16
WIRE 256 64 240 64
WIRE 2400 80 2224 80
WIRE 0 96 -32 96
WIRE 192 96 144 96
WIRE 1280 96 1152 96
WIRE 1360 96 1280 96
WIRE 1408 96 1408 80
WIRE 1552 96 1456 96
WIRE 1744 96 1552 96
WIRE 2400 96 2400 80
WIRE 2448 96 2400 96
WIRE 2448 128 2368 128
WIRE -32 144 -32 96
WIRE -32 144 -80 144
WIRE 48 144 48 112
WIRE 144 144 144 96
WIRE 144 144 48 144
WIRE 240 144 240 112
WIRE 384 144 240 144
WIRE 432 144 432 128
WIRE 528 144 480 144
WIRE 560 144 528 144
WIRE 1440 144 1408 144
WIRE 2368 160 2368 128
WIRE 2368 160 2224 160
WIRE 48 176 48 144
WIRE 240 176 240 144
WIRE 1280 192 1280 96
WIRE 1552 192 1552 96
WIRE 2448 192 2352 192
WIRE 400 208 368 208
WIRE 464 208 464 192
WIRE 464 208 400 208
WIRE 1408 208 1408 144
WIRE 1408 208 1328 208
WIRE 64 224 48 224
WIRE 256 224 240 224
WIRE 400 224 400 208
WIRE 2352 224 2352 192
WIRE 1280 240 1264 240
WIRE 1568 240 1552 240
WIRE -32 256 -32 144
WIRE 0 256 -32 256
WIRE 144 256 144 144
WIRE 192 256 144 256
WIRE 64 272 64 224
WIRE 64 272 48 272
WIRE 256 272 256 224
WIRE 256 272 240 272
WIRE 384 272 368 272
WIRE 528 272 480 272
WIRE 560 272 528 272
WIRE 1408 272 1408 208
WIRE 1504 272 1408 272
WIRE 432 288 432 272
WIRE 48 304 48 272
WIRE 240 304 240 272
WIRE 1408 304 1408 272
WIRE 144 352 144 256
WIRE 368 352 368 272
WIRE 368 352 144 352
WIRE 1280 384 1280 288
WIRE 1408 384 1280 384
WIRE 1552 384 1552 288
WIRE 1552 384 1408 384
WIRE 1408 448 1408 384
WIRE 64 544 32 544
WIRE 432 544 432 480
WIRE 432 544 400 544
WIRE 2016 544 1920 544
WIRE 1920 576 1920 544
WIRE 1104 640 784 640
WIRE 1328 640 1328 608
WIRE 1344 640 1328 640
WIRE 1344 688 1344 640
WIRE 1344 688 1328 688
WIRE 1280 720 1248 720
WIRE 976 736 960 736
WIRE 1328 768 1328 736
WIRE 1456 768 1328 768
WIRE 400 784 368 784
WIRE 960 800 960 736
WIRE 960 800 864 800
WIRE 1248 800 1248 720
WIRE 1248 800 960 800
WIRE 1328 800 1328 768
WIRE 1344 848 1328 848
WIRE 1248 880 1248 800
WIRE 1280 880 1248 880
WIRE 1344 896 1344 848
WIRE 1344 896 1328 896
WIRE 96 912 32 912
WIRE 1328 928 1328 896
FLAG 48 304 0
FLAG 240 304 0
FLAG 48 -16 Vdd
IOPIN 48 -16 In
FLAG 240 -16 Vdd
IOPIN 240 -16 In
FLAG -80 144 DataIn
IOPIN -80 144 In
FLAG 1408 448 VddHalf
IOPIN 1408 448 In
FLAG 1408 304 phi_d
IOPIN 1408 304 In
FLAG -48 544 0
FLAG 704 640 0
FLAG 64 544 Vdd
IOPIN 64 544 Out
FLAG 1104 640 VddHalf
IOPIN 1104 640 Out
FLAG 320 544 0
FLAG 432 480 Write
IOPIN 432 480 Out
FLAG -48 912 0
FLAG 96 912 DataIn
IOPIN 96 912 Out
FLAG 288 784 0
FLAG 400 784 phi_d
IOPIN 400 784 Out
FLAG 784 800 0
FLAG 976 736 phi_s
IOPIN 976 736 Out
FLAG 1456 768 phi_s_bar
IOPIN 1456 768 Out
FLAG 2448 224 WL
IOPIN 2448 224 In
FLAG 2224 80 Data
IOPIN 2224 80 BiDir
FLAG 2224 160 DataBar
IOPIN 2224 160 BiDir
FLAG 2448 160 Vdd
IOPIN 2448 160 In
FLAG 2352 224 0
FLAG 2560 144 nQ
IOPIN 2560 144 Out
FLAG 2560 176 Q
IOPIN 2560 176 Out
FLAG 1920 656 0
FLAG 2016 544 WL
IOPIN 2016 544 Out
FLAG 368 208 Write
IOPIN 368 208 In
FLAG 560 144 Data
IOPIN 560 144 Out
FLAG 560 272 DataBar
IOPIN 560 272 Out
FLAG 1152 96 DataBar
IOPIN 1152 96 Out
FLAG 1744 96 Data
IOPIN 1744 96 Out
FLAG 528 208 0
FLAG 528 336 0
FLAG 432 288 0
FLAG 432 128 0
FLAG 1264 240 0
FLAG 1408 80 0
FLAG 1568 240 0
FLAG 1760 464 Vdd
IOPIN 1760 464 In
FLAG 2048 416 Data
IOPIN 2048 416 BiDir
FLAG 2048 448 DataBar
IOPIN 2048 448 BiDir
FLAG 1328 928 0
FLAG 1328 608 Vdd
IOPIN 1328 608 In
FLAG 1760 400 phi_s
IOPIN 1760 400 In
FLAG 1760 432 phi_s_bar
IOPIN 1760 432 In
SYMBOL nmos4 0 176 R0
SYMATTR InstName M1
SYMATTR Value N_2u
SYMATTR Value2 l=2u w={W_n}
SYMBOL nmos4 192 176 R0
SYMATTR InstName M2
SYMATTR Value N_2u
SYMATTR Value2 l=2u w={W_n}
SYMBOL pmos4 0 16 R0
SYMATTR InstName M3
SYMATTR Value P_2u
SYMATTR Value2 l=2u w={W_p}
SYMBOL pmos4 192 16 R0
SYMATTR InstName M4
SYMATTR Value P_2u
SYMATTR Value2 l=2u w={W_p}
SYMBOL nmos4 384 192 R270
SYMATTR InstName M5
SYMATTR Value N_2u
SYMATTR Value2 l=2u w={W_D}
SYMBOL nmos4 1360 144 R270
SYMATTR InstName M7
SYMATTR Value N_2u
SYMATTR Value2 l=2u w={W_triple}
SYMBOL nmos4 1504 192 R0
SYMATTR InstName M8
SYMATTR Value N_2u
SYMATTR Value2 l=2u w={W_triple}
SYMBOL voltage 48 544 R90
WINDOW 0 -32 56 VBottom 2
WINDOW 3 32 56 VTop 2
WINDOW 123 0 0 Left 0
WINDOW 39 0 0 Left 0
SYMATTR InstName V1
SYMATTR Value 5
SYMBOL voltage 800 640 R90
WINDOW 0 -32 56 VBottom 2
WINDOW 3 32 56 VTop 2
WINDOW 123 0 0 Left 0
WINDOW 39 0 0 Left 0
SYMATTR InstName V2
SYMATTR Value 2.5
SYMBOL voltage 416 544 R90
WINDOW 0 -32 56 VBottom 2
WINDOW 3 32 56 VTop 2
WINDOW 123 0 0 Left 0
WINDOW 39 0 0 Left 0
SYMATTR InstName V3
SYMATTR Value PULSE(0 5 0 1p 1p 40m 90m 2)
SYMBOL voltage 48 912 R90
WINDOW 0 -32 56 VBottom 2
WINDOW 3 32 56 VTop 2
WINDOW 123 0 0 Left 0
WINDOW 39 0 0 Left 0
SYMATTR InstName V4
SYMATTR Value PULSE(0 5 0 1p 1p 80m 160m 1)
SYMBOL voltage 384 784 R90
WINDOW 0 -32 56 VBottom 2
WINDOW 3 32 56 VTop 2
WINDOW 123 0 0 Left 0
WINDOW 39 0 0 Left 0
SYMATTR InstName V5
SYMATTR Value PULSE(0 5 180m 1p 1p 40m 80m 1)
SYMBOL nmos4 1328 288 R180
SYMATTR InstName M9
SYMATTR Value N_2u
SYMATTR Value2 l=2u w={W_triple}
SYMBOL nmos4 480 224 R90
SYMATTR InstName M6
SYMATTR Value N_2u
SYMATTR Value2 l=2u w={W_D}
SYMBOL voltage 880 800 R90
WINDOW 0 -32 56 VBottom 2
WINDOW 3 32 56 VTop 2
WINDOW 123 0 0 Left 0
WINDOW 39 0 0 Left 0
SYMATTR InstName V6
SYMATTR Value PULSE(0 5 270m 1p 1p 80m 160m 1)
SYMBOL core-final 2496 160 R0
SYMATTR InstName X2
SYMBOL voltage 1920 560 R0
WINDOW 123 0 0 Left 0
WINDOW 39 0 0 Left 0
SYMATTR InstName V8
SYMATTR Value PULSE(0 5 45m 1p 1p 40m 90m 3)
SYMBOL cap 512 144 R0
SYMATTR InstName C1
SYMATTR Value 50p
SYMBOL cap 512 272 R0
SYMATTR InstName C4
SYMATTR Value 50p
SYMBOL amp 1904 432 R0
SYMATTR InstName X1
SYMBOL nmos4 1280 800 R0
SYMATTR InstName M10
SYMATTR Value N_2u
SYMATTR Value2 l=2u w={W_n}
SYMBOL pmos4 1280 640 R0
SYMATTR InstName M11
SYMATTR Value P_2u
SYMATTR Value2 l=2u w={W_p}
TEXT 656 -80 Left 2 !.include "C:\\Users\\DANIEL\\Documents\\IPD445\\Modelos de transistores-20230616\\2um_CMOS.modlib"
TEXT -176 754 Left 2 !.tran 0 400m 0 10m startup
TEXT 1936 144 Left 2 !.param W_p=12u
TEXT 1936 224 Left 2 !.param W_n=8u
TEXT 720 352 Left 2 !.param W_D=8u
TEXT 1928 272 Left 2 !.param W_triple=8u
