Version 4
SHEET 1 1180 1172
WIRE -704 0 -720 0
WIRE -560 0 -576 0
WIRE -416 0 -432 0
WIRE -720 16 -720 0
WIRE -576 16 -576 0
WIRE -432 16 -432 0
WIRE -560 192 -576 192
WIRE -368 192 -400 192
WIRE -96 192 -112 192
WIRE -560 224 -560 192
WIRE -576 272 -640 272
WIRE -400 272 -400 192
WIRE -400 272 -480 272
WIRE -192 272 -400 272
WIRE -528 288 -528 272
WIRE -480 288 -480 272
WIRE -480 288 -528 288
WIRE -400 288 -400 272
WIRE -96 288 -96 192
WIRE -400 336 -416 336
WIRE -80 336 -96 336
WIRE -336 368 -352 368
WIRE -192 368 -192 272
WIRE -144 368 -192 368
WIRE -416 384 -416 336
WIRE -400 384 -416 384
WIRE -80 384 -80 336
WIRE -80 384 -96 384
WIRE -400 416 -400 384
WIRE -400 416 -416 416
WIRE -96 416 -96 384
WIRE -96 416 -112 416
FLAG -576 96 0
FLAG -560 0 Vdd
IOPIN -560 0 Out
FLAG -432 96 0
FLAG -416 0 nBL
IOPIN -416 0 Out
FLAG -416 416 Vss
IOPIN -416 416 In
FLAG -640 272 nBL
IOPIN -640 272 In
FLAG -720 96 0
FLAG -704 0 Vss
IOPIN -704 0 Out
FLAG -336 368 Vdd
IOPIN -336 368 In
FLAG -576 192 Vdd
IOPIN -576 192 In
FLAG -112 192 Vdd
IOPIN -112 192 In
FLAG -112 416 Vss
IOPIN -112 416 In
FLAG -368 192 nQ
IOPIN -368 192 Out
SYMBOL nmos4 -352 288 M0
WINDOW 0 -37 46 Left 2
WINDOW 3 -70 42 Invisible 2
SYMATTR InstName M1
SYMATTR Value N_2u
SYMATTR Value2 l=M1_L w={M1_L*M1_WL}
SYMBOL voltage -576 0 R0
WINDOW 0 39 46 Left 2
WINDOW 3 39 76 Left 2
SYMATTR InstName Vdd
SYMATTR Value 5
SYMBOL voltage -432 0 R0
WINDOW 0 42 38 Left 2
WINDOW 3 42 66 Left 2
WINDOW 123 0 0 Left 0
WINDOW 39 0 0 Left 0
SYMATTR InstName VnBL
SYMATTR Value ""
SYMBOL nmos4 -480 224 R90
WINDOW 0 -37 46 Left 2
WINDOW 3 -70 42 Invisible 2
SYMATTR InstName M5
SYMATTR Value N_2u
SYMATTR Value2 l=2u w=2u
SYMBOL voltage -720 0 R0
WINDOW 0 39 46 Left 2
WINDOW 3 39 76 Left 2
SYMATTR InstName Vss
SYMATTR Value 0
SYMBOL nmos4 -144 288 R0
WINDOW 0 -37 46 Left 2
WINDOW 3 -70 42 Invisible 2
SYMATTR InstName M3
SYMATTR Value N_2u
SYMATTR Value2 l=M1_L w={M1_L*M1_WL}
TEXT -304 -8 Left 2 !.include "../2um_CMOS.modlib"
TEXT -312 32 Left 2 !.param M1_L 2u\n.save V(nQ) V(Q) Id(M3) Id(M1)\n.step param M1_WL LIST 1 2 3 4 5 6 7 8 9 10\n.dc VnBL 0 2.5 0.01
