Version 4
SHEET 1 1180 1172
WIRE -576 -64 -592 -64
WIRE -448 -64 -464 -64
WIRE -320 -64 -336 -64
WIRE -592 -48 -592 -64
WIRE -464 -48 -464 -64
WIRE -336 -48 -336 -64
WIRE -656 272 -672 272
WIRE -672 288 -672 272
FLAG -464 32 0
FLAG -336 32 0
FLAG -448 -64 Vdd
IOPIN -448 -64 Out
FLAG -320 -64 WL
IOPIN -320 -64 Out
FLAG -656 272 PRE
IOPIN -656 272 Out
FLAG -672 368 0
FLAG -480 224 Vss
IOPIN -480 224 In
FLAG -480 160 PRE
IOPIN -480 160 In
FLAG -480 128 PRE
IOPIN -480 128 In
FLAG -480 256 WL
IOPIN -480 256 In
FLAG -480 192 Vdd
IOPIN -480 192 In
FLAG -368 176 nQ
IOPIN -368 176 Out
FLAG -368 208 Q
IOPIN -368 208 Out
FLAG -592 32 0
FLAG -576 -64 Vss
IOPIN -576 -64 Out
SYMBOL voltage -464 -64 R0
WINDOW 0 39 46 Left 2
WINDOW 3 39 76 Left 2
SYMATTR InstName V1
SYMATTR Value 5
SYMBOL voltage -336 -64 R0
WINDOW 0 45 45 Left 2
WINDOW 3 45 74 Left 2
SYMATTR InstName V2
SYMATTR Value 5
SYMBOL voltage -672 272 R0
WINDOW 0 39 46 Left 2
WINDOW 3 39 76 Left 2
SYMATTR InstName V4
SYMATTR Value PULSE(0 {PRECHARGE} 10n 1p 1p 10n 20n 5)
SYMBOL voltage -592 -64 R0
WINDOW 0 39 46 Left 2
WINDOW 3 39 76 Left 2
SYMATTR InstName V5
SYMATTR Value 0
SYMBOL core-final -432 192 R0
SYMATTR InstName X1
TEXT -200 -16 Left 2 !.include "../2um_CMOS.modlib"
TEXT -200 160 Left 2 !.ic V(Q)=5 V(nQ)=0\n.save V(Q) V(nQ) V(PRE)\n.step param PRECHARGE list 2.7 3.2 3.5 3.9\n.tran 35n
TEXT -200 40 Left 2 !.param M1_L=2u M1_WL=3\n.param M2_L=2u M2_WL=12\n.param M5_L=2u M5_WL=1
